data/figure_cases/case22.m
function mpc = case22
%CASE22

%% MATPOWER Case Format : Version 2
mpc.version = '2';

%%-----  Power Flow Data  -----%%
%% system MVA base
mpc.baseMVA = 1;

%% bus data
%	bus_i	type	Pd	Qd	Gs	Bs	area	Vm	Va	baseKV	zone	Vmax	Vmin
mpc.bus = [
	1	3	0	0	0	0	1	1	0	11	1	1	1;
	2	1	0.01678	0.02091	0	0	1	1	0	11	1	1.1	0.9;
	3	1	0.01678	0.02091	0	0	1	1	0	11	1	1.1	0.9;
	4	1	0.0338	0.03732	0	0	1	1	0	11	1	1.1	0.9;
	5	1	0.01456	0.01252	0	0	1	1	0	11	1	1.1	0.9;
	6	1	0.01049	0.01421	0	0	1	1	0	11	1	1.1	0.9;
	7	1	0.008821	0.01166	0	0	1	1	0	11	1	1.1	0.9;
	8	1	0.01435	0.01859	0	0	1	1	0	11	1	1.1	0.9;
	9	1	0.01931	0.02587	0	0	1	1	0	11	1	1.1	0.9;
	10	1	0.01435	0.01859	0	0	1	1	0	11	1	1.1	0.9;
	11	1	0.01627	0.01948	0	0	1	1	0	11	1	1.1	0.9;
	12	1	0.01627	0.01948	0	0	1	1	0	11	1	1.1	0.9;
	13	1	0.08213	0.07165	0	0	1	1	0	11	1	1.1	0.9;
	14	1	0.03471	0.03012	0	0	1	1	0	11	1	1.1	0.9;
	15	1	0.03471	0.03012	0	0	1	1	0	11	1	1.1	0.9;
	16	1	0.08031	0.07012	0	0	1	1	0	11	1	1.1	0.9;
	17	1	0.04962	0.04782	0	0	1	1	0	11	1	1.1	0.9;
	18	1	0.04962	0.04782	0	0	1	1	0	11	1	1.1	0.9;
	19	1	0.04377	0.03893	0	0	1	1	0	11	1	1.1	0.9;
	20	1	0.03732	0.03596	0	0	1	1	0	11	1	1.1	0.9;
	21	1	0.03732	0.03596	0	0	1	1	0	11	1	1.1	0.9;
	22	1	0.03102	0.02936	0	0	1	1	0	11	1	1.1	0.9;
];

%% generator data
%	bus	Pg	Qg	Qmax	Qmin	Vg	mBase	status	Pmax	Pmin	Pc1	Pc2	Qc1min	Qc1max	Qc2min	Qc2max	ramp_agc	ramp_10	ramp_30	ramp_q	apf
mpc.gen = [
	1	0	0	10	-10	1	100	1	10	0	0	0	0	0	0	0	0	0	0	0	0;
];

%% branch data
%	fbus	tbus	r	x	b	rateA	rateB	rateC	ratio	angle	status	angmin	angmax
mpc.branch = [
	1	2	0.00302809917	0.00149338843	0	0	0	0	0	0	1	-360	360;
	2	3	0.000452066116	0.000233057851	0	0	0	0	0	0	1	-360	360;
	2	4	0.00447603306	0.00230495868	0	0	0	0	0	0	1	-360	360;
	4	5	0.00159504132	0.000818181818	0	0	0	0	0	0	1	-360	360;
	4	9	0.00614132231	0.00316280992	0	0	0	0	0	0	1	-360	360;
	5	6	0.0108347107	0.00558016529	0	0	0	0	0	0	1	-360	360;
	6	7	0.000494214876	0.000254545455	0	0	0	0	0	0	1	-360	360;
	6	8	0.00240082645	0.00123636364	0	0	0	0	0	0	1	-360	360;
	9	10	0.000452066116	0.000233057851	0	0	0	0	0	0	1	-360	360;
	9	11	0.0055785124	0.0028768595	0	0	0	0	0	0	1	-360	360;
	11	12	0.000452066116	0.000233057851	0	0	0	0	0	0	1	-360	360;
	11	13	0.00325785124	0.00167768595	0	0	0	0	0	0	1	-360	360;
	13	14	0.0086446281	0.00445289256	0	0	0	0	0	0	1	-360	360;
	14	15	0.000181818182	9.58677686e-05	0	0	0	0	0	0	1	-360	360;
	14	16	0.000452066116	0.000233057851	0	0	0	0	0	0	1	-360	360;
	16	17	0.00265454545	0.00136694215	0	0	0	0	0	0	1	-360	360;
	17	18	0.000784297521	0.000403305785	0	0	0	0	0	0	1	-360	360;
	17	19	0.00474380165	0.00244545455	0	0	0	0	0	0	1	-360	360;
	19	20	0.0010677686	0.000545454545	0	0	0	0	0	0	1	-360	360;
	20	21	0.000719834711	0.000371900826	0	0	0	0	0	0	1	-360	360;
	20	22	0.00440413223	0.0022677686	0	0	0	0	0	0	1	-360	360;
];

%%-----  OPF Data  -----%%
%% generator cost data
%	1	startup	shutdown	n	x1	y1	...	xn	yn
%	2	startup	shutdown	n	c(n-1)	...	c0
mpc.gencost = [
	2	0	0	3	0	20	0;
];
